07_CYME/Commonwealth 12-05-  9-14 loads (original).sxst_DSS/Master.dss
Clear

! Define the Circuit
New Circuit.COMMONWEALTH_RET_01311205 Bus1=COMMONWEALTH_RET_01311205
~ BasekV=12.47  pu=1.0300  angle=0.00
~ Z1=[ 0.0342 0.6498 ]
~ Z2=[ 0.0342 0.6498 ]
~ Z0=[ 0.0249 0.6050 ]

! Library Data
Redirect Libraries\WireData.dss
Redirect Libraries\LineSpacing.dss
Redirect Libraries\UGLineCodes.dss

! Loadshapes
Redirect Shapes.dss

! Circuit Element Data
Redirect Elements\Lines.dss
Redirect Elements\Loads.dss
Redirect Elements\Capacitors.dss
!Redirect Elements\Regulators.dss

! Circuit Control Settings
!Redirect Controls\FuseContrl.dss
!Redirect Controls\SwitContrl.dss
!Redirect Controls\ReclContrl.dss

! Set the voltage bases
Set voltagebases = [ 12.47 7.20 0.480 0.208 0.240 0.120 ]
CalcVoltageBases

! Define the bus coordinates
Buscoords BusCoords.dss

! Define an energy meter
New EnergyMeter.CircuitMeter LINE.259355408 terminal=1 option=R PhaseVoltageReport=yes
~ peakcurrent=[ 400.00   400.00   400.00 ]